kpg193_v2_0_2032/network/m/KPG193_ver2_0_2032.m
function mpc = KPG193_ver2_0_2032
% Generated from KPG193_ver1_6 ACOPF hourly result.
% Bus voltage angle Va is in degrees, matching MATPOWER case format.
mpc.version = '2';

%-----  Power Flow Data  -----%%
% system MVA base
mpc.baseMVA = 100;

% bus data
%	bus_i	type	Pd	Qd	Gs	Bs	area	Vm	Va	baseKV	zone	Vmax	Vmin
mpc.bus = [
	1	1	69.6986928827	6.96986928828	0	0	1	1.0003330344	-14.6882949309	154	1	1.1	0.9	;
	2	1	84.2398504848	8.42398504848	0	0	1	1.00286642669	-15.8412078978	345	1	1.05	0.95	;
	3	1	386.356695447	38.6356695447	0	0	1	1.00297526866	-15.7514488365	345	1	1.05	0.95	;
	4	1	89.610279462	8.9610279462	0	0	1	1.0035930507	-16.0918658784	345	1	1.05	0.95	;
	5	1	78.6383545135	10.1189505005	0	0	1	1.00571671624	-9.64732795547	154	1	1.1	0.9	;
	6	1	86.096187631	8.6096187631	0	0	1	1.00251198625	-16.9759891867	154	1	1.1	0.9	;
	7	1	580.934573136	58.0934573136	0	0	1	1.00428127292	-16.1667722694	345	1	1.05	0.95	;
	8	2	1326.08011205	132.608011205	0	0	1	1.00314804192	-16.6934182032	345	1	1.05	0.95	;
	9	1	335.722744102	33.5722744102	0	0	1	1.00501214792	-16.489120159	154	1	1.1	0.9	;
	10	2	737.569621759	73.7569621759	0	0	1	1.00430352703	-16.6213607014	154	1	1.1	0.9	;
	11	1	610.915198273	61.0915198273	0	0	1	1.00249709986	-16.9409367844	345	1	1.05	0.95	;
	12	1	335.216497616	33.5216497616	0	0	1	1.00489034879	-16.5057783109	154	1	1.1	0.9	;
	13	1	361.304621426	36.1304621426	0	0	1	1.00516284435	-16.4866953328	154	1	1.1	0.9	;
	14	1	387.472493312	38.7472493312	0	0	1	1.00497428135	-16.520553839	345	1	1.05	0.95	;
	15	1	114.621916782	11.4621916782	0	0	1	1.00581308645	-16.4032381029	154	1	1.1	0.9	;
	16	2	493.795733805	49.3795733805	0	0	1	1.00616885189	-16.3657432659	345	1	1.05	0.95	;
	17	1	532.463947767	53.2463947767	0	0	1	1.00574357387	-16.4511471563	345	1	1.05	0.95	;
	18	1	555.914458363	55.5914458363	0	0	1	1.00551207717	-16.485099161	345	1	1.05	0.95	;
	19	2	523.356687507	52.3356687507	0	0	1	1.00495658607	-16.5248843045	345	1	1.05	0.95	;
	20	2	266.500184348	27.0271330204	0	0	1	1.00463160857	-15.9301411023	154	1	1.1	0.9	;
	21	2	813.342119054	81.5798582944	0	0	1	1.0031601507	-16.6874274401	345	1	1.05	0.95	;
	22	1	658.776797416	65.8776797416	0	0	1	1.0061350541	-16.3351022732	345	1	1.05	0.95	;
	23	1	385.510525601	38.5510525601	0	0	1	1.00445014313	-16.5469066583	345	1	1.05	0.95	;
	24	1	630.702999034	63.0702999034	0	0	1	1.00409951336	-16.5874329231	154	1	1.1	0.9	;
	25	1	510.032382011	51.0032382011	0	0	1	1.00382191382	-16.6868331798	154	1	1.1	0.9	;
	26	1	601.985064267	60.1985064267	0	0	1	1.00437567115	-16.5306376807	345	1	1.05	0.95	;
	27	2	-6.14694448325	3.4290097118	0	0	1	1.00499303163	-16.3431450868	345	1	1.05	0.95	;
	28	1	136.476865689	13.6476865689	0	0	1	1.00409079132	-12.6101244075	765	1	1.05	0.95	;
	29	1	663.714569722	66.3715326419	0	0	1	1.00516951579	-16.3375094776	345	1	1.05	0.95	;
	30	1	515.694270325	51.5694270325	0	0	1	1.00511867217	-16.3402916645	154	1	1.1	0.9	;
	31	1	419.407884077	41.9407884077	0	0	1	1.00368904173	-16.5979140732	154	1	1.1	0.9	;
	32	1	172.923086699	17.2923086699	0	0	1	1.00426577868	-16.5544723454	345	1	1.05	0.95	;
	33	1	498.654964863	49.8654964863	0	0	1	1.00406735938	-16.5643311575	154	1	1.1	0.9	;
	34	2	1115.18932067	111.518973921	0	0	1	1.00467908435	-16.4409885768	345	1	1.05	0.95	;
	35	1	679.383085012	67.9383085012	0	0	1	1.00131713212	-16.5169632817	154	1	1.1	0.9	;
	36	2	783.746008272	78.3746008272	0	0	1	1.00523867582	-16.2878968647	345	1	1.05	0.95	;
	37	1	960.85725685	96.085725685	0	0	1	1.00330001873	-16.373022539	345	1	1.05	0.95	;
	38	1	389.158156072	38.9158156072	0	0	1	1.00298252579	-15.9306100032	345	1	1.05	0.95	;
	39	1	750.795648818	75.0795648818	0	0	1	0.998823239377	-17.0295877661	154	1	1.1	0.9	;
	40	2	1138.07833721	113.807833721	0	0	1	1.00169109056	-15.230789319	345	1	1.05	0.95	;
	41	1	205.636977729	20.5636977729	0	0	1	0.992788606028	-12.808857434	154	1	1.1	0.9	;
	42	1	1255.00484584	125.500484584	0	0	1	0.985892790851	-17.434223892	154	1	1.1	0.9	;
	43	2	654.117194156	65.4121175274	0	0	1	0.999735327331	-16.5455920147	154	1	1.1	0.9	;
	44	1	201.814846765	20.1814846765	0	0	1	1.00168562633	-15.9500498983	345	1	1.05	0.95	;
	45	1	369.513046601	36.9513046601	0	0	1	1.00187338905	-15.660788751	345	1	1.05	0.95	;
	46	2	1162.43518506	116.243518506	0	0	1	1.00231097683	-15.5108872457	345	1	1.05	0.95	;
	47	1	2944.26862876	294.426947328	0	0	1	0.99974520627	-16.3384957303	345	1	1.05	0.95	;
	48	2	205.375902185	20.5375902185	0	0	1	1.00258727597	-15.0451602556	154	1	1.1	0.9	;
	49	1	420.184658843	42.0184658843	0	0	1	0.999223073872	-15.3717891994	154	1	1.1	0.9	;
	50	1	499.612749929	49.9673234508	0	0	1	1.00241725279	-14.6145832771	765	1	1.05	0.95	;
	51	1	2001.81669191	200.181669191	0	0	1	0.999824053085	-15.2753003627	345	1	1.05	0.95	;
	52	1	460.676800573	46.0676800573	0	0	2	0.993809794518	-13.7158878201	154	1	1.1	0.9	;
	53	2	956.087226603	95.6087226603	0	0	2	1.00426343006	-9.79457459284	765	1	1.05	0.95	;
	54	1	410.791115745	41.0791115745	0	0	2	1.00044153644	-13.6855493406	345	1	1.05	0.95	;
	55	1	1195.7414475	119.57414475	0	0	2	0.998861179922	-12.4618543942	345	1	1.05	0.95	;
	56	1	166.130996353	16.6130996353	0	0	2	0.995068449295	-14.1224629547	154	1	1.1	0.9	;
	57	1	1882.75968207	188.276331785	0	0	2	0.998136286387	-12.7009452709	345	1	1.05	0.95	;
	58	1	1409.37355059	140.93846669	0	0	2	1.00419458002	-9.19842408736	345	1	1.05	0.95	;
	59	2	127.944078341	12.7976456027	0	0	2	1.00566946327	-8.0174471413	345	1	1.05	0.95	;
	60	1	186.372978535	18.6372978535	0	0	2	1.00263297027	-10.8838728273	345	1	1.05	0.95	;
	61	1	892.248980594	89.225057995	0	0	2	1.0003614386	-13.2945908936	154	1	1.1	0.9	;
	62	1	1050.18102841	105.018102841	0	0	2	1.00196660247	-13.2327804419	765	1	1.05	0.95	;
	63	1	144.606827097	14.5496725659	0	0	2	1.00423135915	-10.470717813	765	1	1.05	0.95	;
	64	1	530.14510179	53.014510179	0	0	2	1.00103568544	-11.9327695091	345	1	1.05	0.95	;
	65	1	68.6705653227	12.6077131442	0	0	3	0.989293751576	-2.89037273095	154	1	1.1	0.9	;
	66	1	28.4240419045	3.64203385207	0	0	3	0.997491046997	-10.7362199811	154	1	1.1	0.9	;
	67	1	25.064278089	2.88557496455	0	0	3	0.992503447459	-8.20702318132	154	1	1.1	0.9	;
	68	1	38.632846703	4.55585077241	0	0	3	0.991552916234	-1.12769228594	345	1	1.05	0.95	;
	69	1	47.4058422654	4.74058422654	0	0	3	0.990448711762	-6.3145913554	154	1	1.1	0.9	;
	70	1	261.465732233	26.1465732233	0	0	3	0.996293452251	-11.0261719287	154	1	1.1	0.9	;
	71	2	231.789534961	29.4874249258	0	0	3	0.992861135431	0.994395848716	345	1	1.05	0.95	;
	72	1	102.949514278	10.2949514278	0	0	3	0.993163930532	-10.2449652455	154	1	1.1	0.9	;
	73	2	321.598662584	33.432553981	0	0	3	0.993495993184	3.3194755926	345	1	1.05	0.95	;
	74	1	37.287302974	9.50772613776	0	0	3	0.994453462223	-10.3672487311	154	1	1.1	0.9	;
	75	2	197.314894667	19.7314894667	0	0	3	0.995627069582	5.39431128873	345	1	1.05	0.95	;
	76	1	85.0452049818	8.78376665421	0	0	3	0.986148960977	-2.39361481367	154	1	1.1	0.9	;
	77	1	362.23676615	36.223676615	0	0	3	0.993994094358	-11.0596523407	154	1	1.1	0.9	;
	78	1	-3.90375296303	8.76708182632	0	0	3	1.00042431232	-7.95064457486	154	1	1.1	0.9	;
	79	1	48.1809798885	15.980944216	0	0	3	0.987707333404	-5.06122669362	154	1	1.1	0.9	;
	80	1	-588.967617797	4.24049702225	0	0	3	0.997985213057	1.99644584429	765	1	1.05	0.95	;
	81	1	231.442338044	23.1459674736	0	0	3	0.990595930345	-7.17381581937	345	1	1.05	0.95	;
	82	2	-36.5984237833	10.0640121036	0	0	3	1.00261133711	6.09524384553	765	1	1.05	0.95	;
	83	1	264.655144503	26.466038163	0	0	3	0.983746396965	-7.24718239524	154	1	1.1	0.9	;
	84	1	368.640415061	38.6061635069	0	0	3	0.99348840461	-13.0982031738	345	1	1.05	0.95	;
	85	1	249.264201621	24.9264201621	0	0	3	0.990131279006	-3.17838806817	154	1	1.1	0.9	;
	86	1	244.096359151	24.4096856407	0	0	3	0.994346123949	-3.86963655578	345	1	1.05	0.95	;
	87	1	17.7265541328	5.58422584109	0	0	3	0.996188509385	-4.57557939552	345	1	1.05	0.95	;
	88	1	15.7019684921	1.57019684921	0	0	3	0.998957038039	-3.67266631369	154	1	1.1	0.9	;
	89	1	84.6990992928	8.47007838596	0	0	3	0.993314678395	-6.59936400631	154	1	1.1	0.9	;
	90	1	161.764550012	16.9630984103	0	0	3	0.995984106104	-5.3764315927	154	1	1.1	0.9	;
	91	1	56.7843810217	5.67843810217	0	0	3	1.00020136846	-10.6004313695	154	1	1.1	0.9	;
	92	1	-31.0982980247	2.88196642039	0	0	3	0.998893009262	-4.69933532619	345	1	1.05	0.95	;
	93	1	112.361962846	11.2361962846	0	0	3	0.996282909546	-8.28508446554	154	1	1.1	0.9	;
	94	1	-30.7117953157	4.15336681041	0	0	3	0.998741544429	-1.96019341563	154	1	1.1	0.9	;
	95	1	63.8235928749	6.38235928749	0	0	3	0.998429889562	-4.8710267292	345	1	1.05	0.95	;
	96	1	165.122329487	16.5122329487	0	0	4	1.00122540472	-10.4710429603	154	1	1.1	0.9	;
	97	1	51.3787668634	5.13787668634	0	0	4	1.00563483262	-8.1053701118	345	1	1.05	0.95	;
	98	1	261.097140324	26.4888597667	0	0	4	0.998315553872	-11.5832537959	154	1	1.1	0.9	;
	99	1	849.878169149	84.9878169149	0	0	4	0.997534303192	-11.6447392577	154	1	1.1	0.9	;
	100	2	199.167030598	19.9167030598	0	0	4	1.00788697294	-6.21259300856	345	1	1.05	0.95	;
	101	1	310.615003974	31.0615003974	0	0	4	1.00042795648	-10.6270081252	154	1	1.1	0.9	;
	102	1	91.4439600524	9.14439600524	0	0	4	1.00293500125	-9.82474974644	345	1	1.05	0.95	;
	103	1	95.8640890526	9.58640890526	0	0	4	1.00456689905	-8.36373117441	154	1	1.1	0.9	;
	104	1	202.515399475	20.2515399475	0	0	4	1.00381403416	-9.20136967895	345	1	1.05	0.95	;
	105	1	135.759958246	13.5759958246	0	0	4	1.00093515106	-9.75454711456	154	1	1.1	0.9	;
	106	2	160.660111367	16.0669416	0	0	4	1.00714096628	-7.03546475549	154	1	1.1	0.9	;
	107	1	-8.1342967862	3.05070524634	0	0	4	1.00265198358	-8.66337971014	345	1	1.05	0.95	;
	108	1	810.066306141	83.3920901784	0	0	4	1.00622955734	-7.91385498271	345	1	1.05	0.95	;
	109	1	436.697687022	43.6697687022	0	0	4	1.00381438172	-7.77812733985	345	1	1.05	0.95	;
	110	1	255.559948346	25.5559948346	0	0	4	0.999419157788	-8.75728268994	154	1	1.1	0.9	;
	111	1	161.829058693	16.183637867	0	0	4	1.00269608213	-6.33497929819	345	1	1.05	0.95	;
	112	1	29.9194074235	2.99194074235	0	0	4	1.00141456145	-8.35522239848	154	1	1.1	0.9	;
	113	1	635.954665168	63.5981751484	0	0	4	0.998319351243	-8.66099580708	154	1	1.1	0.9	;
	114	1	69.5600791181	7.03488310055	0	0	4	1.0023402906	-6.4893981846	154	1	1.1	0.9	;
	115	1	30.6763764586	3.06763764586	0	0	4	1.00444776997	-7.06312583177	154	1	1.1	0.9	;
	116	1	43.3049306333	4.33049306333	0	0	4	1.00224640733	-7.17775646228	154	1	1.1	0.9	;
	117	1	244.284748078	26.1481261726	0	0	4	1.00345969432	-6.09389653644	154	1	1.1	0.9	;
	118	1	54.8458152853	9.49654790325	0	0	4	1.00457189949	-0.834152204615	154	1	1.1	0.9	;
	119	1	95.6703830022	9.56703830022	0	0	4	1.00491222645	-5.32764434854	345	1	1.05	0.95	;
	120	1	39.2271256873	3.92271256874	0	0	4	1.00407579977	-6.05153678325	154	1	1.1	0.9	;
	121	1	91.2885900948	9.12885900948	0	0	4	1.00491667535	-5.24741996566	154	1	1.1	0.9	;
	122	1	75.5959993162	7.55959993162	0	0	4	1.00239516355	-5.5535632433	154	1	1.1	0.9	;
	123	1	61.4844910367	6.14844910367	0	0	4	1.0039235359	-5.62216514685	154	1	1.1	0.9	;
	124	2	-871.142388435	11.9487524686	0	0	4	1.00791702722	1.70155254122	345	1	1.05	0.95	;
	125	1	25.4480385966	2.54480385966	0	0	4	1.00350440084	-5.80675534498	154	1	1.1	0.9	;
	126	1	423.949623266	42.3949623266	0	0	4	1.00312056951	-4.81521594957	345	1	1.05	0.95	;
	127	1	334.067421363	33.4069865828	0	0	4	1.00114217289	-5.68573874237	154	1	1.1	0.9	;
	128	1	504.746652542	50.4746652542	0	0	4	0.998953146007	-6.60344802976	154	1	1.1	0.9	;
	129	1	59.742411952	5.9742411952	0	0	4	1.00743191813	-5.52486742706	154	1	1.1	0.9	;
	130	1	75.5758934985	7.55758934985	0	0	4	1.00393787996	-5.22084458203	345	1	1.05	0.95	;
	131	1	193.67536654	19.367536654	0	0	4	1.00189290275	-6.13734755218	154	1	1.1	0.9	;
	132	1	16.4385218156	10.3965758336	0	0	4	1.0081490686	-5.31716078217	154	1	1.1	0.9	;
	133	1	303.093418404	31.1175041025	0	0	4	1.0017140718	-5.14379550011	345	1	1.05	0.95	;
	134	2	708.952591189	70.8952591189	0	0	4	1.00207244225	-4.51790759958	345	1	1.05	0.95	;
	135	1	149.536600431	15.0457611132	0	0	4	1.00732959376	-5.68304261814	154	1	1.1	0.9	;
	136	1	-75.5946894216	17.3019039464	0	0	4	1.00644424456	-5.24469790187	345	1	1.05	0.95	;
	137	2	2059.07453494	205.907453494	0	0	4	0.998413846327	-5.256659189	345	1	1.05	0.95	;
	138	1	44.4952250547	4.44952250547	0	0	4	1.00428481682	-5.70823944884	154	1	1.1	0.9	;
	139	1	-404.028983516	4.72068096737	0	0	4	1.01097228781	-4.50188196482	154	1	1.1	0.9	;
	140	1	54.5897709935	5.45897709935	0	0	4	1.0065235234	-5.76320058899	154	1	1.1	0.9	;
	141	1	56.7428940171	5.67428940171	0	0	4	1.00788473694	-5.56629488867	154	1	1.1	0.9	;
	142	1	77.1015349552	7.71015349552	0	0	4	1.0031465934	-5.75481901448	154	1	1.1	0.9	;
	143	1	110.786427353	11.0856427207	0	0	4	1.00811575608	-5.65363203166	154	1	1.1	0.9	;
	144	1	49.6847018471	5.09950308262	0	0	4	1.00745627389	-6.02545379349	154	1	1.1	0.9	;
	145	1	141.743301282	15.8405861022	0	0	4	1.00535101332	-6.52952774065	154	1	1.1	0.9	;
	146	1	31.2133234806	4.63300309707	0	0	5	0.995181759111	-6.03864183115	154	1	1.1	0.9	;
	147	1	62.8026974705	6.28026974705	0	0	5	1.00118116806	-9.51579644579	154	1	1.1	0.9	;
	148	1	340.020502574	34.0021037848	0	0	5	0.985062103029	-9.18336461703	154	1	1.1	0.9	;
	149	2	1345.1587326	134.51587326	0	0	5	0.991512287564	-7.51443331296	345	1	1.05	0.95	;
	150	1	742.822491038	74.8040476586	0	0	5	0.997818979041	-3.95100423779	345	1	1.05	0.95	;
	151	1	631.91318202	63.2212135715	0	0	5	0.999292424941	-3.3105699534	345	1	1.05	0.95	;
	152	1	283.33868635	28.333868635	0	0	5	0.994997295139	-6.29611617476	345	1	1.05	0.95	;
	153	1	222.025179004	22.2026745242	0	0	5	0.991768374942	-5.48436409283	154	1	1.1	0.9	;
	154	1	151.970048768	15.1970048768	0	0	5	0.990491378811	-7.55349391671	154	1	1.1	0.9	;
	155	1	425.838894942	42.5838894942	0	0	5	0.990827569297	-7.58311831294	154	1	1.1	0.9	;
	156	1	458.767273036	45.8767273036	0	0	5	0.992232667602	-6.31691996055	154	1	1.1	0.9	;
	157	1	215.971668156	21.5971668156	0	0	5	0.991272469445	-7.66320885879	154	1	1.1	0.9	;
	158	1	513.039416977	56.5011215583	0	0	5	0.997980858793	-3.08056614202	154	1	1.1	0.9	;
	159	1	392.970159106	39.2970159106	0	0	5	0.994206531484	-5.31876295064	345	1	1.05	0.95	;
	160	1	1121.52064098	112.152569757	0	0	5	0.994613462	-7.82086029701	154	1	1.1	0.9	;
	161	1	184.932486717	18.4932486717	0	0	5	0.999523888034	-5.16668530869	345	1	1.05	0.95	;
	162	1	66.7294086963	6.67294086963	0	0	5	0.998637869066	-5.24035026185	154	1	1.1	0.9	;
	163	1	70.1861839422	7.01861839422	0	0	5	0.998327393348	-3.75640484935	345	1	1.05	0.95	;
	164	1	55.3007275896	5.90256545524	0	0	5	0.999403289113	-4.87327954224	154	1	1.1	0.9	;
	165	1	1721.07683256	172.107683256	0	0	5	0.995848791224	-3.51624080493	345	1	1.05	0.95	;
	166	2	552.811935622	55.2811935622	0	0	5	1.00387011111	-0.809724232284	345	1	1.05	0.95	;
	167	2	2296.99903295	229.700153104	0	0	5	1.00262808205	-1.13843440835	345	1	1.05	0.95	;
	168	1	146.27942714	14.627942714	0	0	5	1.00412106023	-1.91423504854	765	1	1.05	0.95	;
	169	1	41.2240535146	4.12240535146	0	0	5	0.999378259061	-4.92374629556	154	1	1.1	0.9	;
	170	1	154.499066076	18.1146366172	0	0	5	0.997701263016	-2.93688852704	154	1	1.1	0.9	;
	171	1	19.1434768562	5.07095732268	0	0	5	1.00195461036	-3.41000472196	345	1	1.05	0.95	;
	172	1	376.761073071	53.4802749518	0	0	5	0.9974214594	-1.24367463794	154	1	1.1	0.9	;
	173	1	2.96512280524	5.54961082495	0	0	5	1.00122379686	-3.35037404596	345	1	1.05	0.95	;
	174	1	402.423269441	40.2423269441	0	0	5	0.998748196709	-3.33649261891	345	1	1.05	0.95	;
	175	2	180.926992035	18.2458420826	0	0	5	1.01014267492	3.03596513329	765	1	1.05	0.95	;
	176	1	528.722436819	52.872561605	0	0	5	0.997159255935	-2.87507177422	345	1	1.05	0.95	;
	177	1	676.030289854	67.6030289854	0	0	5	0.995323581291	-2.73497881244	345	1	1.05	0.95	;
	178	1	764.155786156	76.4155889712	0	0	5	0.989436630946	-4.18136978495	154	1	1.1	0.9	;
	179	1	407.871720994	40.7871720994	0	0	5	1.00519937157	1.38282894946	345	1	1.05	0.95	;
	180	1	381.480659526	38.1480659526	0	0	5	0.9969222049	-3.49943540357	154	1	1.1	0.9	;
	181	1	345.836795685	34.5836795685	0	0	5	1.00408036807	0.795140532103	345	1	1.05	0.95	;
	182	1	624.346742775	62.4350535897	0	0	5	0.990346454999	-4.10096977086	345	1	1.05	0.95	;
	183	1	282.434660336	28.24379007	0	0	5	0.995261166281	-2.66320533944	345	1	1.05	0.95	;
	184	1	558.03873197	55.8045750069	0	0	5	1.00485024276	1.31720864746	345	1	1.05	0.95	;
	185	1	318.914580523	31.8914580523	0	0	5	1.0031081105	0.683267200055	154	1	1.1	0.9	;
	186	2	477.547317046	47.756133625	0	0	5	1.00542105809	1.25450190605	345	1	1.05	0.95	;
	187	1	66.0024483444	6.60024483444	0	0	5	1.00539291847	1.24556145008	345	1	1.05	0.95	;
	188	1	60.2800925343	6.02800925343	0	0	5	1.00248570113	-2.92436199614	154	1	1.1	0.9	;
	189	1	109.6427134	11.0035389633	0	0	5	1.00036759427	-1.60037006646	154	1	1.1	0.9	;
	190	3	197.323553252	19.7445507461	0	0	5	1	0	345	1	1.05	0.95	;
	191	1	274.795839854	27.4802641376	0	0	5	0.998583028246	-1.24612526985	154	1	1.1	0.9	;
	192	2	137.262120536	13.7265643929	0	0	5	1.00149221802	-0.108701581386	154	1	1.1	0.9	;
	193	2	39.1536794351	3.91536794351	0	0	5	1.00597716843	-0.905968908673	345	1	1.05	0.95	;
];

% generator data
%	bus	Pg	Qg	Qmax	Qmin	Vg	mBase	status	Pmax	Pmin	Pc1	Pc2	Qc1min	Qc1max	Qc2min	Qc2max	ramp_agc	ramp_10	ramp_30	ramp_q	apf
mpc.gen = [
	3	0	0	362.5	-362.5	1.00297526866	100	0	725	377	0	0	0	0	0	0	0	120.8333333	362.5	362.5	0	;
	3	0	0	362.5	-362.5	1.00297526866	100	0	725	377	0	0	0	0	0	0	0	120.8333333	362.5	362.5	0	;
	3	0	0	437.1	-437.1	1.00297526866	100	0	874.2	454.584	0	0	0	0	0	0	0	145.7	437.1	437.1	0	;
	4	0	0	262.15	-262.15	1.0035930507	100	0	524.3	272.636	0	0	0	0	0	0	0	87.38333333	262.15	262.15	0	;
	4	0	0	429.2	-429.2	1.0035930507	100	0	858.4	446.368	0	0	0	0	0	0	0	143.0666667	429.2	429.2	0	;
	4	0	0	429.2	-429.2	1.0035930507	100	0	858.4	446.368	0	0	0	0	0	0	0	143.0666667	429.2	429.2	0	;
	8	0	0	423.8	-423.8	1.00314804192	100	0	847.6	440.752	0	0	0	0	0	0	0	141.2666667	423.8	423.8	0	;
	8	0	0	423.8	-423.8	1.00314804192	100	0	847.6	440.752	0	0	0	0	0	0	0	141.2666667	423.8	423.8	0	;
	8	500.556867939	-14.3287464396	257.75	-257.75	1.00314804192	100	1	515.5	268.06	0	0	0	0	0	0	0	85.91666667	257.75	257.75	0	;
	9	0	0	57.705	-57.705	1.00501214792	100	0	115.41	60.0132	0	0	0	0	0	0	0	19.235	57.705	57.705	0	;
	9	0	0	18.5	-18.5	1.00501214792	100	0	37	19.24	0	0	0	0	0	0	0	6.166666667	18.5	18.5	0	;
	10	0	0	300	-300	1.00430352703	100	0	600	312	0	0	0	0	0	0	0	100	300	300	0	;
	10	279.549949817	7.70229295827	150	-150	1.00430352703	100	1	300	156	0	0	0	0	0	0	0	50	150	150	0	;
	19	347.061206724	1.35523751769	184.5865	-184.5865	1.00495658607	100	1	369.173	191.96996	0	0	0	0	0	0	0	61.52883333	184.5865	184.5865	0	;
	19	347.319705424	1.35523751769	184.5865	-184.5865	1.00495658607	100	1	369.173	191.96996	0	0	0	0	0	0	0	61.52883333	184.5865	184.5865	0	;
	20	336.408177293	17.0105598807	181.9055	-181.9055	1.00463160857	100	1	363.811	189.18172	0	0	0	0	0	0	0	60.63516667	181.9055	181.9055	0	;
	21	435.207184649	0.642231564235	225	-225	1.0031601507	100	1	450	234	0	0	0	0	0	0	0	75	225	225	0	;
	21	0	0	225	-225	1.0031601507	100	0	450	234	0	0	0	0	0	0	0	75	225	225	0	;
	21	0	0	225	-225	1.0031601507	100	0	450	234	0	0	0	0	0	0	0	75	225	225	0	;
	21	0	0	225	-225	1.0031601507	100	0	450	234	0	0	0	0	0	0	0	75	225	225	0	;
	24	0	0	10.5	-10.5	1.00409951336	100	0	21	10.92	0	0	0	0	0	0	0	3.5	10.5	10.5	0	;
	26	0	0	0	0	1.00437567115	100	0	0	0	0	0	0	0	0	0	0	0	0	0	0	;
	27	0	0	63.5	-63.5	1.00499303163	100	0	127	66.04	0	0	0	0	0	0	0	21.16666667	63.5	63.5	0	;
	27	167.823130504	1.90007966923	93.65	-93.65	1.00499303163	100	1	187.3	97.396	0	0	0	0	0	0	0	31.21666667	93.65	93.65	0	;
	34	210.875280943	5.26107231867	112.5	-112.5	1.00467908435	100	1	225	117	0	0	0	0	0	0	0	37.5	112.5	112.5	0	;
	34	204.156312824	5.26107231867	112.5	-112.5	1.00467908435	100	1	225	117	0	0	0	0	0	0	0	37.5	112.5	112.5	0	;
	34	0	0	112.5	-112.5	1.00467908435	100	0	225	117	0	0	0	0	0	0	0	37.5	112.5	112.5	0	;
	34	210.875280943	5.26107231867	112.5	-112.5	1.00467908435	100	1	225	117	0	0	0	0	0	0	0	37.5	112.5	112.5	0	;
	34	204.156312824	5.26107231867	112.5	-112.5	1.00467908435	100	1	225	117	0	0	0	0	0	0	0	37.5	112.5	112.5	0	;
	34	205.19719694	5.26107231867	112.5	-112.5	1.00467908435	100	1	225	117	0	0	0	0	0	0	0	37.5	112.5	112.5	0	;
	34	0	0	112.5	-112.5	1.00467908435	100	0	225	117	0	0	0	0	0	0	0	37.5	112.5	112.5	0	;
	34	201.441950465	5.26107231867	112.5	-112.5	1.00467908435	100	1	225	117	0	0	0	0	0	0	0	37.5	112.5	112.5	0	;
	34	0	0	251.7695	-251.7695	1.00467908435	100	0	503.539	261.84028	0	0	0	0	0	0	0	83.92316667	251.7695	251.7695	0	;
	34	0	0	254.454	-254.454	1.00467908435	100	0	508.908	264.63216	0	0	0	0	0	0	0	84.818	254.454	254.454	0	;
	34	0	0	225	-225	1.00467908435	100	0	450	234	0	0	0	0	0	0	0	75	225	225	0	;
	34	429.797585592	2.31433985628	225	-225	1.00467908435	100	1	450	234	0	0	0	0	0	0	0	75	225	225	0	;
	34	0	0	225	-225	1.00467908435	100	0	450	234	0	0	0	0	0	0	0	75	225	225	0	;
	34	556.20024674	-16.8858297423	287.3	-287.3	1.00467908435	100	1	574.6	298.792	0	0	0	0	0	0	0	95.76666667	287.3	287.3	0	;
	34	556.20024674	-16.8858297423	287.3	-287.3	1.00467908435	100	1	574.6	298.792	0	0	0	0	0	0	0	95.76666667	287.3	287.3	0	;
	34	0	0	187.8	-187.8	1.00467908435	100	0	375.6	195.312	0	0	0	0	0	0	0	62.6	187.8	187.8	0	;
	34	0	0	187.8	-187.8	1.00467908435	100	0	375.6	195.312	0	0	0	0	0	0	0	62.6	187.8	187.8	0	;
	34	0	0	187.8	-187.8	1.00467908435	100	0	375.6	195.312	0	0	0	0	0	0	0	62.6	187.8	187.8	0	;
	36	0	0	0	0	1.00523867582	100	0	0	0	0	0	0	0	0	0	0	0	0	0	0	;
	36	0	0	0	0	1.00523867582	100	0	0	0	0	0	0	0	0	0	0	0	0	0	0	;
	36	0	0	206.3	-206.3	1.00523867582	100	0	412.6	214.552	0	0	0	0	0	0	0	68.76666667	206.3	206.3	0	;
	36	133.485043447	2.56081214762	73.157	-73.157	1.00523867582	100	1	146.314	76.08328	0	0	0	0	0	0	0	24.38566667	73.157	73.157	0	;
	37	0	0	12	-12	1.00330001873	100	0	24	12.48	0	0	0	0	0	0	0	4	12	12	0	;
	39	0	0	240.845	-240.845	0.998823239377	100	0	481.69	250.4788	0	0	0	0	0	0	0	80.28166667	240.845	240.845	0	;
	39	0	0	240.845	-240.845	0.998823239377	100	0	481.69	250.4788	0	0	0	0	0	0	0	80.28166667	240.845	240.845	0	;
	40	0	0	30	-30	1.00169109056	100	0	60	31.2	0	0	0	0	0	0	0	10	30	30	0	;
	40	0	0	375.6	-375.6	1.00169109056	100	0	751.2	390.624	0	0	0	0	0	0	0	125.2	375.6	375.6	0	;
	40	786.902358587	-39.9099142696	400	-400	1.00169109056	100	1	800	320	0	0	0	0	0	0	0	88	264	400	0	;
	40	786.902358587	-39.9099142696	400	-400	1.00169109056	100	1	800	320	0	0	0	0	0	0	0	88	264	400	0	;
	40	856.945087186	-49.3251974027	435	-435	1.00169109056	100	1	870	348	0	0	0	0	0	0	0	95.7	287.1	435	0	;
	40	856.945087186	-49.3251974027	435	-435	1.00169109056	100	1	870	348	0	0	0	0	0	0	0	95.7	287.1	435	0	;
	40	856.945087186	-49.3251974027	435	-435	1.00169109056	100	1	870	348	0	0	0	0	0	0	0	95.7	287.1	435	0	;
	40	856.945087186	-49.3251974027	435	-435	1.00169109056	100	1	870	348	0	0	0	0	0	0	0	95.7	287.1	435	0	;
	43	127.869186468	1.3918404579	72.394	-72.394	0.999735327331	100	1	144.788	75.28976	0	0	0	0	0	0	0	24.13133333	72.394	72.394	0	;
	43	0	0	0	0	0.999735327331	100	0	0	0	0	0	0	0	0	0	0	0	0	0	0	;
	45	0	0	255.9	-255.9	1.00187338905	100	0	511.8	266.136	0	0	0	0	0	0	0	85.3	255.9	255.9	0	;
	47	0	0	0	0	0.99974520627	100	0	0	0	0	0	0	0	0	0	0	0	0	0	0	;
	47	0	0	0	0	0.99974520627	100	0	0	0	0	0	0	0	0	0	0	0	0	0	0	;
	47	0	0	0	0	0.99974520627	100	0	0	0	0	0	0	0	0	0	0	0	0	0	0	;
	47	0	0	0	0	0.99974520627	100	0	0	0	0	0	0	0	0	0	0	0	0	0	0	;
	47	0	0	434.25	-434.25	0.99974520627	100	0	868.5	451.62	0	0	0	0	0	0	0	144.75	434.25	434.25	0	;
	47	0	0	431.65	-431.65	0.99974520627	100	0	863.3	448.916	0	0	0	0	0	0	0	143.8833333	431.65	431.65	0	;
	48	0	0	218.05	-218.05	1.00258727597	100	0	436.1	226.772	0	0	0	0	0	0	0	72.68333333	218.05	218.05	0	;
	48	352.377437809	15.2001588624	189.19	-189.19	1.00258727597	100	1	378.38	196.7576	0	0	0	0	0	0	0	63.06333333	189.19	189.19	0	;
	48	354.797782671	15.2001588624	189.19	-189.19	1.00258727597	100	1	378.38	196.7576	0	0	0	0	0	0	0	63.06333333	189.19	189.19	0	;
	49	0	0	384.915	-384.915	0.999223073872	100	0	769.83	400.3116	0	0	0	0	0	0	0	128.305	384.915	384.915	0	;
	53	0	0	250.375	-250.375	1.00426343006	100	0	500.75	260.39	0	0	0	0	0	0	0	83.45833333	250.375	250.375	0	;
	53	0	0	266.5	-266.5	1.00426343006	100	0	533	277.16	0	0	0	0	0	0	0	88.83333333	266.5	266.5	0	;
	53	0	0	191	-191	1.00426343006	100	0	382	198.64	0	0	0	0	0	0	0	63.66666667	191	191	0	;
	53	0	0	423	-423	1.00426343006	100	0	846	439.92	0	0	0	0	0	0	0	141	423	423	0	;
	53	0	0	0	0	1.00426343006	100	0	0	0	0	0	0	0	0	0	0	0	0	0	0	;
	53	0	0	0	0	1.00426343006	100	0	0	0	0	0	0	0	0	0	0	0	0	0	0	;
	53	476.852510683	6.70990359314	250	-250	1.00426343006	100	1	500	200	0	0	0	0	0	0	0	55	165	250	0	;
	53	476.852510683	6.70990359314	250	-250	1.00426343006	100	1	500	200	0	0	0	0	0	0	0	55	165	250	0	;
	53	476.852510683	6.70990359314	250	-250	1.00426343006	100	1	500	200	0	0	0	0	0	0	0	55	165	250	0	;
	53	476.852510683	6.70990359314	250	-250	1.00426343006	100	1	500	200	0	0	0	0	0	0	0	55	165	250	0	;
	53	476.852510683	6.70990359314	250	-250	1.00426343006	100	1	500	200	0	0	0	0	0	0	0	55	165	250	0	;
	53	476.852510683	6.70990359314	250	-250	1.00426343006	100	1	500	200	0	0	0	0	0	0	0	55	165	250	0	;
	53	1001.34019516	-46.7674734688	510	-510	1.00426343006	100	1	1020	408	0	0	0	0	0	0	0	112.2	336.6	510	0	;
	53	1001.34019516	-46.7674734688	510	-510	1.00426343006	100	1	1020	408	0	0	0	0	0	0	0	112.2	336.6	510	0	;
	57	0	0	50.85	-50.85	0.998136286387	100	0	101.7	52.884	0	0	0	0	0	0	0	16.95	50.85	50.85	0	;
	58	0	0	0	0	1.00419458002	100	0	0	0	0	0	0	0	0	0	0	0	0	0	0	;
	59	0	0	173.165	-173.165	1.00566946327	100	0	346.33	180.0916	0	0	0	0	0	0	0	57.72166667	173.165	173.165	0	;
	59	0	0	0	0	1.00566946327	100	0	0	0	0	0	0	0	0	0	0	0	0	0	0	;
	59	0	0	0	0	1.00566946327	100	0	0	0	0	0	0	0	0	0	0	0	0	0	0	;
	59	0	0	0	0	1.00566946327	100	0	0	0	0	0	0	0	0	0	0	0	0	0	0	;
	59	0	0	0	0	1.00566946327	100	0	0	0	0	0	0	0	0	0	0	0	0	0	0	;
	59	0	0	0	0	1.00566946327	100	0	0	0	0	0	0	0	0	0	0	0	0	0	0	;
	59	0	0	0	0	1.00566946327	100	0	0	0	0	0	0	0	0	0	0	0	0	0	0	;
	59	475.473507139	9.04094002594	250	-250	1.00566946327	100	1	500	200	0	0	0	0	0	0	0	55	165	250	0	;
	59	475.473507139	9.04094002594	250	-250	1.00566946327	100	1	500	200	0	0	0	0	0	0	0	55	165	250	0	;
	59	1029.73353011	-42.163929991	525	-525	1.00566946327	100	1	1050	420	0	0	0	0	0	0	0	115.5	346.5	525	0	;
	59	1029.73353011	-42.163929991	525	-525	1.00566946327	100	1	1050	420	0	0	0	0	0	0	0	115.5	346.5	525	0	;
	62	0	0	0	0	1.00196660247	100	0	0	0	0	0	0	0	0	0	0	0	0	0	0	;
	64	0	0	265.2205	-265.2205	1.00103568544	100	0	530.441	275.82932	0	0	0	0	0	0	0	88.40683333	265.2205	265.2205	0	;
	70	0	0	215.6	-215.6	0.996293452251	100	0	431.2	224.224	0	0	0	0	0	0	0	71.86666667	215.6	215.6	0	;
	71	1018.21949392	-66.8461644701	520	-520	0.992861135431	100	1	1040	416	0	0	0	0	0	0	0	114.4	343.2	520	0	;
	73	0	0	0	0	0.993495993184	100	0	0	0	0	0	0	0	0	0	0	0	0	0	0	;
	73	0	0	0	0	0.993495993184	100	0	0	0	0	0	0	0	0	0	0	0	0	0	0	;
	73	569.995055101	2.05023732171	297.5	-297.5	0.993495993184	100	1	595	238	0	0	0	0	0	0	0	65.45	196.35	297.5	0	;
	73	569.995055101	2.05023732171	297.5	-297.5	0.993495993184	100	1	595	238	0	0	0	0	0	0	0	65.45	196.35	297.5	0	;
	79	0	0	424	-424	0.987707333404	100	0	848	440.96	0	0	0	0	0	0	0	141.3333333	424	424	0	;
	75	716.617593378	-41.9926157756	511	-511	0.995627069582	100	1	1022	408.8	0	0	0	0	0	0	0	112.42	337.26	511	0	;
	75	762.525741643	-41.9926157756	511	-511	0.995627069582	100	1	1022	408.8	0	0	0	0	0	0	0	112.42	337.26	511	0	;
	82	934.161000683	-10.0093871566	475	-475	1.00261133711	100	1	950	902.5	0	0	0	0	0	0	0	28.5	85.5	475	0	;
	82	934.161036265	-10.0093871566	475	-475	1.00261133711	100	1	950	902.5	0	0	0	0	0	0	0	28.5	85.5	475	0	;
	82	983.599754001	-14.0927232673	500	-500	1.00261133711	100	1	1000	950	0	0	0	0	0	0	0	30	90	500	0	;
	82	983.599754001	-14.0927232673	500	-500	1.00261133711	100	1	1000	950	0	0	0	0	0	0	0	30	90	500	0	;
	82	983.599754001	-14.0927232673	500	-500	1.00261133711	100	1	1000	950	0	0	0	0	0	0	0	30	90	500	0	;
	82	983.599754001	-14.0927232673	500	-500	1.00261133711	100	1	1000	950	0	0	0	0	0	0	0	30	90	500	0	;
	82	1379.64606613	-40.0645994243	700	-700	1.00261133711	100	1	1400	1330	0	0	0	0	0	0	0	42	126	700	0	;
	87	0	0	180.8	-180.8	0.996188509385	100	0	361.6	188.032	0	0	0	0	0	0	0	60.26666667	180.8	180.8	0	;
	98	0	0	44	-44	0.998315553872	100	0	88	45.76	0	0	0	0	0	0	0	14.66666667	44	44	0	;
	99	0	0	24.15	-24.15	0.997534303192	100	0	48.3	25.116	0	0	0	0	0	0	0	8.05	24.15	24.15	0	;
	100	419.327559439	11.690329068	225	-225	1.00788697294	100	1	450	234	0	0	0	0	0	0	0	75	225	225	0	;
	100	0	0	225	-225	1.00788697294	100	0	450	234	0	0	0	0	0	0	0	75	225	225	0	;
	100	0	0	225	-225	1.00788697294	100	0	450	234	0	0	0	0	0	0	0	75	225	225	0	;
	100	524.838747032	2.54837564019	275	-275	1.00788697294	100	1	550	220	0	0	0	0	0	0	0	60.5	181.5	275	0	;
	100	474.124045716	7.52832311427	250	-250	1.00788697294	100	1	500	200	0	0	0	0	0	0	0	55	165	250	0	;
	100	0	0	0	0	1.00788697294	100	0	0	0	0	0	0	0	0	0	0	0	0	0	0	;
	100	0	0	0	0	1.00788697294	100	0	0	0	0	0	0	0	0	0	0	0	0	0	0	;
	100	474.124045716	7.52832311427	250	-250	1.00788697294	100	1	500	200	0	0	0	0	0	0	0	55	165	250	0	;
	100	474.124045716	7.52832311427	250	-250	1.00788697294	100	1	500	200	0	0	0	0	0	0	0	55	165	250	0	;
	100	997.365862472	-40.1554716335	509.515	-509.515	1.00788697294	100	1	1019.03	407.612	0	0	0	0	0	0	0	112.0933	336.2799	509.515	0	;
	100	997.365862472	-40.1554716335	509.515	-509.515	1.00788697294	100	1	1019.03	407.612	0	0	0	0	0	0	0	112.0933	336.2799	509.515	0	;
	106	979.778594521	-19.2446709769	509	-509	1.00714096628	100	1	1018	407.2	0	0	0	0	0	0	0	111.98	335.94	509	0	;
	108	0	0	359.2	-359.2	1.00622955734	100	0	718.4	373.568	0	0	0	0	0	0	0	119.7333333	359.2	359.2	0	;
	124	933.527201588	-19.7210712503	475	-475	1.00791702722	100	1	950	902.5	0	0	0	0	0	0	0	28.5	85.5	475	0	;
	124	933.527201588	-19.7210712503	475	-475	1.00791702722	100	1	950	902.5	0	0	0	0	0	0	0	28.5	85.5	475	0	;
	124	982.921892352	-21.2293638663	500	-500	1.00791702722	100	1	1000	950	0	0	0	0	0	0	0	30	90	500	0	;
	124	982.921892352	-21.2293638663	500	-500	1.00791702722	100	1	1000	950	0	0	0	0	0	0	0	30	90	500	0	;
	124	982.921892352	-21.2293638663	500	-500	1.00791702722	100	1	1000	950	0	0	0	0	0	0	0	30	90	500	0	;
	124	982.921892352	-21.2293638663	500	-500	1.00791702722	100	1	1000	950	0	0	0	0	0	0	0	30	90	500	0	;
	128	0	0	57.623	-57.623	0.998953146007	100	0	115.246	59.92792	0	0	0	0	0	0	0	19.20766667	57.623	57.623	0	;
	134	0	0	262.75	-262.75	1.00207244225	100	0	525.5	273.26	0	0	0	0	0	0	0	87.58333333	262.75	262.75	0	;
	134	0	0	432.1	-432.1	1.00207244225	100	0	864.2	449.384	0	0	0	0	0	0	0	144.0333333	432.1	432.1	0	;
	134	0	0	247.3	-247.3	1.00207244225	100	0	494.6	257.192	0	0	0	0	0	0	0	82.43333333	247.3	247.3	0	;
	134	476.09310748	-18.8554369224	247.3	-247.3	1.00207244225	100	1	494.6	257.192	0	0	0	0	0	0	0	82.43333333	247.3	247.3	0	;
	137	317.062162513	0.355831580226	170	-170	0.998413846327	100	1	340	136	0	0	0	0	0	0	0	37.4	112.2	170	0	;
	137	306.359720259	0.883661248901	164.3	-164.3	0.998413846327	100	1	328.6	131.44	0	0	0	0	0	0	0	36.146	108.438	164.3	0	;
	156	0	0	185.35	-185.35	0.992232667602	100	0	370.7	192.764	0	0	0	0	0	0	0	61.78333333	185.35	185.35	0	;
	160	0	0	0	0	0.994613462	100	0	0	0	0	0	0	0	0	0	0	0	0	0	0	;
	166	687.57472436	60.4925576634	350	-350	1.00387011111	100	1	700	665	0	0	0	0	0	0	0	21	63	350	0	;
	166	687.57472436	60.4925576634	350	-350	1.00387011111	100	1	700	665	0	0	0	0	0	0	0	21	63	350	0	;
	166	687.57472436	60.4925576634	350	-350	1.00387011111	100	1	700	665	0	0	0	0	0	0	0	21	63	350	0	;
	166	984.138884073	74.4854584611	500	-500	1.00387011111	100	1	1000	950	0	0	0	0	0	0	0	30	90	500	0	;
	166	984.138884073	74.4854584611	500	-500	1.00387011111	100	1	1000	950	0	0	0	0	0	0	0	30	90	500	0	;
	167	278.567754634	24.7799295015	150	-150	1.00262808205	100	1	300	156	0	0	0	0	0	0	0	50	150	150	0	;
	167	0	0	225	-225	1.00262808205	100	0	450	234	0	0	0	0	0	0	0	75	225	225	0	;
	167	0	0	225	-225	1.00262808205	100	0	450	234	0	0	0	0	0	0	0	75	225	225	0	;
	167	0	0	435.95	-435.95	1.00262808205	100	0	871.9	453.388	0	0	0	0	0	0	0	145.3166667	435.95	435.95	0	;
	167	0	0	221.4	-221.4	1.00262808205	100	0	442.8	230.256	0	0	0	0	0	0	0	73.8	221.4	221.4	0	;
	172	0	0	22.918	-22.918	0.9974214594	100	0	45.836	23.83472	0	0	0	0	0	0	0	7.639333333	22.918	22.918	0	;
	175	638.066524163	43.662512563	325	-325	1.01014267492	100	1	650	617.5	0	0	0	0	0	0	0	19.5	58.5	325	0	;
	175	934.371024671	52.1621991539	475	-475	1.01014267492	100	1	950	902.5	0	0	0	0	0	0	0	28.5	85.5	475	0	;
	175	934.371024671	52.1621991539	475	-475	1.01014267492	100	1	950	902.5	0	0	0	0	0	0	0	28.5	85.5	475	0	;
	175	983.8307213	53.551221701	500	-500	1.01014267492	100	1	1000	950	0	0	0	0	0	0	0	30	90	500	0	;
	175	983.8307213	53.551221701	500	-500	1.01014267492	100	1	1000	950	0	0	0	0	0	0	0	30	90	500	0	;
	175	1380.06484665	66.6869278478	700	-700	1.01014267492	100	1	1400	1330	0	0	0	0	0	0	0	42	126	700	0	;
	175	1380.06484665	66.6869278478	700	-700	1.01014267492	100	1	1400	1330	0	0	0	0	0	0	0	42	126	700	0	;
	180	0	0	13.15	-13.15	0.9969222049	100	0	26.3	13.676	0	0	0	0	0	0	0	4.383333333	13.15	13.15	0	;
	186	0	0	225	-225	1.00542105809	100	0	450	234	0	0	0	0	0	0	0	75	225	225	0	;
	186	413.534365617	33.6714364641	225	-225	1.00542105809	100	1	450	234	0	0	0	0	0	0	0	75	225	225	0	;
	186	423.410492208	33.6714364641	225	-225	1.00542105809	100	1	450	234	0	0	0	0	0	0	0	75	225	225	0	;
	186	412.347700196	33.6714364641	225	-225	1.00542105809	100	1	450	234	0	0	0	0	0	0	0	75	225	225	0	;
	190	0	0	0	0	1	100	0	0	0	0	0	0	0	0	0	0	0	0	0	0	;
	190	0	0	0	0	1	100	0	0	0	0	0	0	0	0	0	0	0	0	0	0	;
	190	0	0	0	0	1	100	0	0	0	0	0	0	0	0	0	0	0	0	0	0	;
	190	0	0	0	0	1	100	0	0	0	0	0	0	0	0	0	0	0	0	0	0	;
	190	959.669138407	-40.0025219555	520	-520	1	100	1	1040	416	0	0	0	0	0	0	0	114.4	343.2	520	0	;
	190	959.669138407	-40.0025219555	520	-520	1	100	1	1040	416	0	0	0	0	0	0	0	114.4	343.2	520	0	;
	193	0	0	0	0	1.00597716843	100	0	0	0	0	0	0	0	0	0	0	0	0	0	0	;
	193	0	0	0	0	1.00597716843	100	0	0	0	0	0	0	0	0	0	0	0	0	0	0	;
	193	0	0	0	0	1.00597716843	100	0	0	0	0	0	0	0	0	0	0	0	0	0	0	;
	193	0	0	0	0	1.00597716843	100	0	0	0	0	0	0	0	0	0	0	0	0	0	0	;
	193	0	0	0	0	1.00597716843	100	0	0	0	0	0	0	0	0	0	0	0	0	0	0	;
	193	0	0	0	0	1.00597716843	100	0	0	0	0	0	0	0	0	0	0	0	0	0	0	;
	193	436.187534999	1.77592241851	250	-250	1.00597716843	100	1	500	200	0	0	0	0	0	0	0	55	165	250	0	;
	193	436.187535937	1.77592241851	250	-250	1.00597716843	100	1	500	200	0	0	0	0	0	0	0	55	165	250	0	;
	71	1018.21949392	-66.8461644701	520	-520	0.992861135431	100	1	1040	416	0	0	0	0	0	0	0	114.4	343.2	520	0	;
	60	0	0	247.5	-247.5	1.00263297027	100	0	495	257.4	0	0	0	0	0	0	0	82.5	247.5	247.5	0	;
	42	0	0	512.7	-512.7	0.985892790851	100	0	1025.4	533.208	0	0	0	0	0	0	0	170.9	512.7	512.7	0	;
	11	0	0	0	0	1.00249709986	100	0	0	0	0	0	0	0	0	0	0	0	0	0	0	;
	172	0	0	59.486	-59.486	0.9974214594	100	0	118.972	61.86544	0	0	0	0	0	0	0	19.8286666667	59.486	59.486	0	;
	82	1379.64606613	-40.0645994243	700	-700	1.00261133711	100	1	1400	1330	0	0	0	0	0	0	0	42	126	700	0	;
	75	703.767327143	-45.3057096184	525	-525	0.995627069582	100	1	1050	420	0	0	0	0	0	0	0	115.5	346.5	525	0	;
	64	0	0	298.5855	-298.5855	1.00103568544	100	0	597.171	310.52892	0	0	0	0	0	0	0	99.5285	298.5855	298.5855	0	;
	160	0	0	135	-135	0.994613462	100	0	270	140.4	0	0	0	0	0	0	0	45	135	135	0	;
	192	994.356824463	-5.30008780184	506	-506	1.00149221802	100	1	1012	526.24	0	0	0	0	0	0	0	168.666666667	506	506	0	;
	167	1059.54428105	81.9811840385	552.3	-552.3	1.00262808205	100	1	1104.6	574.392	0	0	0	0	0	0	0	184.1	552.3	552.3	0	;
	75	0	0	525	-525	0.995627069582	100	0	1050	546	0	0	0	0	0	0	0	175	525	525	0	;
	62	0	0	135	-135	1.00196660247	100	0	270	140.4	0	0	0	0	0	0	0	45	135	135	0	;
	52	0	0	280.5	-280.5	0.993809794518	100	0	561	291.72	0	0	0	0	0	0	0	93.5	280.5	280.5	0	;
	11	0	0	247.73	-247.73	1.00249709986	100	0	495.46	257.6392	0	0	0	0	0	0	0	82.5766666667	247.73	247.73	0	;
	24	0	0	142.5	-142.5	1.00409951336	100	0	285	148.2	0	0	0	0	0	0	0	47.5	142.5	142.5	0	;
	26	0	0	249	-249	1.00437567115	100	0	498	258.96	0	0	0	0	0	0	0	83	249	249	0	;
...
];

% branch data
%	fbus	tbus	r	x	b	rateA	rateB	rateC	ratio	angle	status	angmin	angmax	Pf	Qf	Pt	Qt
mpc.branch = [
	1	2	0.001953667	0.017794207	0.057753945	904	904	904	0	0	1	-30	30	110.66438632	-28.1403023778	-110.412839467	24.6375211938	;
	1	3	0.002346024	0.021367842	0.069352749	904	904	904	0	0	1	-30	30	84.8290828905	-24.3448030325	-84.6501598001	19.0162040472	;
	1	66	0.002789894	0.025410654	0.082474341	904	904	904	0	0	1	-30	30	-265.192147646	45.5152664361	267.22159234	-35.2603811123	;
	2	3	0.000230027	0.002463512	0.207508013	2172	2172	2172	0	0	1	-30	30	-63.8164330358	-8.85692055058	63.8257531913	-11.915461964	;
	2	4	0.001097043	0.009991982	0.032430577	904	904	904	0	0	1	-30	30	42.7607264723	-13.5221627161	-42.7392393641	10.4538291222	;
	2	6	0.004587512	0.041783555	0.135615211	904	904	904	0	0	1	-30	30	47.228702048	-10.682414384	-47.126278818	-2.01926283102	;
	3	4	0.000157872	0.001690763	0.142417379	2172	2172	2172	0	0	1	-30	30	347.360922801	-75.1941031482	-347.164300196	62.9644366609	;
	3	7	0.001539844	0.014025061	0.04552058	904	904	904	0	0	1	-30	30	50.4467923526	-16.9792168731	-50.4045342674	12.7789558913	;
	3	28	0.000668777	0.007162388	0.603306441	2172	2172	2172	0	0	1	-30	30	-763.339962651	46.4369808856	767.252953916	-65.2878105043	;
	4	7	0.001330617	0.012119404	0.039335464	904	904	904	0	0	1	-30	30	10.1254700923	-8.78460758886	-10.123504086	4.83793232983	;
	4	8	0.000413018	0.004423289	0.372585094	2172	2172	2172	0	0	1	-30	30	237.942589168	-29.6297410637	-237.709939272	-5.38875148952	;
	5	16	0.00309813	0.028218105	0.091586372	904	904	904	0	0	1	-30	30	417.033722089	-27.4051741341	-411.690739013	66.8018283754	;
	5	20	0.003233724	0.029453105	0.095594761	904	904	904	0	0	1	-30	30	373.581203916	-21.5417415065	-369.110361288	52.6039962464	;
	5	66	0.002753227	0.025076687	0.081390398	904	904	904	0	0	1	-30	30	78.7757011103	20.9468610235	-78.5896848703	-27.4179116712	;
	5	70	0.001710666	0.015580931	0.050570403	904	904	904	0	0	1	-30	30	159.703702295	42.5955665379	-159.237856641	-43.4199170987	;
	6	8	0.001796592	0.016363559	0.053110546	904	904	904	0	0	1	-30	30	-30.3632091513	-3.1572891334	30.379693736	-2.03372583445	;
	6	11	0.001545809	0.014079394	0.045696926	904	904	904	0	0	1	-30	30	-4.30334835374	-1.7165320678	4.30363835699	-2.87343780009	;
	7	9	0.000740338	0.006743076	0.021885732	904	904	904	0	0	1	-30	30	82.0527358102	-20.7608502383	-82.0004791418	19.0278493642	;
	7	14	0.000255269	0.002733843	0.230278712	2172	2172	2172	0	0	1	-30	30	223.69198882	-57.2536785578	-223.560071516	35.4249645648	;
	7	28	0.000583767	0.00625196	0.526618746	2172	2172	2172	0	0	1	-30	30	-988.772031672	99.8935174472	994.523338626	-91.4025248283	;
	8	10	0.000160584	0.000184873	0.901984702	1416	1416	1416	0	0	1	-30	30	-700.819278759	-63.1916739914	701.603546983	-26.777306457	;
	8	11	0.000158062	0.001692798	0.142588761	2172	2172	2172	0	0	1	-30	30	258.045293624	7.86010227052	-257.940348794	-21.0756582809	;
	8	14	0.000269282	0.002883925	0.242920462	2172	2172	2172	0	0	1	-30	30	-110.421282409	-65.2772389142	110.46144207	41.2175612138	;
	9	12	0.000119405	0.000137466	0.167672111	708	708	708	0	0	1	-30	30	165.844906834	-63.4449573586	-165.808818716	46.5528446434	;
	9	13	0.000176983	0.000203752	0.248523638	708	708	708	0	0	1	-30	30	-48.7592803147	-44.5287586131	48.7652379383	19.4297375431	;
	9	15	0.000297907	0.000342968	0.41832935	708	708	708	0	0	1	-30	30	-367.836970589	64.0109316402	368.257419047	-105.813905322	;
	10	14	0.00105221	0.00958364	0.031105236	904	904	904	0	0	1	-30	30	-19.0692812651	-6.48778783181	19.0733272067	3.38518896716	;
	10	24	0.000243464	0.000280289	1.367512381	1416	1416	1416	0	0	1	-30	30	-85.2054635995	78.2087970559	85.2752717755	-216.031209824	;
	11	21	0.00015784	0.00169041	0.142387631	2172	2172	2172	0	0	1	-30	30	-264.538371678	-21.1939022466	264.648588933	8.05485882188	;
	11	25	0.00110679	0.010080759	0.032718716	904	904	904	0	0	1	-30	30	-45.163723693	-9.76213575803	45.1869130169	6.68076584499	;
	12	14	0.000665432	0.00606083	0.019671394	904	904	904	0	0	1	-30	30	4.09487783663	-2.83385331362	-4.09474501455	0.848470709997	;
	12	18	0.000258897	0.000298056	0.363549377	708	708	708	0	0	1	-30	30	-173.502555666	-77.2406419656	173.588624999	40.6056253035	;
	13	16	0.000661549	0.006025463	0.019556605	904	904	904	0	0	1	-30	30	-36.8274532548	-13.6893213082	36.8373899621	11.8019412341	;
	13	17	0.000189196	0.000217813	0.265674267	708	708	708	0	0	1	-30	30	-296.762807451	-23.5536836482	296.927913897	-3.11421104711	;
	13	22	0.000821755	0.00748463	0.024292563	904	904	904	0	0	1	-30	30	-36.7356897575	-10.2030899852	36.7473210791	7.85224938773	;
	14	18	9.94e-05	0.000114489	0.558582953	1416	1416	1416	0	0	1	-30	30	-545.040161864	-26.9041418763	545.332534002	-29.2046887063	;
	14	19	2.7e-05	6.2e-05	1.344867636	1906	1906	1906	0	0	1	-30	30	113.992856074	-88.8686721171	-113.989264854	-46.9487310493	;
	14	23	0.000322118	0.000370841	0.45232683	708	708	708	0	0	1	-30	30	141.694878158	-3.85060820197	-141.629693441	-41.7343298569	;
	15	16	0.000110729	0.000127478	0.155489196	708	708	708	0	0	1	-30	30	-434.99482118	89.4446820035	435.212292578	-104.930099989	;
	16	17	1.61e-05	3.7e-05	7.216516162	5718	5718	5718	0	0	1	-30	30	3851.93925538	-881.87654141	-3849.53719104	157.122941714	;
	16	20	0.000640865	0.005837068	0.018945138	904	904	904	0	0	1	-30	30	-127.16057077	40.0010915158	127.273551178	-40.887085487	;
	16	22	3.29e-05	7.57e-05	1.640782241	1906	1906	1906	0	0	1	-30	30	-585.057462318	216.331253839	585.197828183	-382.111521339	;
	16	28	0.000193401	0.002071259	0.697869898	4344	4344	4344	0	0	1	-30	30	-3148.24528089	464.332121019	3167.65672993	-326.946988189	;
	17	18	8.5e-06	1.95e-05	1.693948976	3812	3812	3812	0	0	1	-30	30	3020.14532641	-207.255124496	-3019.37760557	37.7094515694	;
	18	19	3.3e-05	3.8e-05	0.742	2832	2832	2832	0	0	1	-30	30	1780.6452896	-113.342547191	-1779.60852267	39.557586533	;
	18	30	0.000754369	0.006870878	0.022300533	904	904	904	0	0	1	-30	30	-36.1033412776	8.64073984014	36.1137785169	-10.7994998168	;
	19	23	4.24e-05	4.88e-05	0.952412124	2832	2832	2832	0	0	1	-30	30	969.480385967	152.660355915	-969.068873021	-248.325961499	;
	20	22	0.000644357	0.005868869	0.019048354	904	904	904	0	0	1	-30	30	117.534319707	-39.1713883769	-117.436803894	38.1341719125	;
	21	25	0.000588113	0.0053566	0.017385701	904	904	904	0	0	1	-30	30	-1.53712902968	-13.0992265527	1.53801616742	11.3565764165	;
	21	34	9.49e-05	0.001016882	0.085654572	2172	2172	2172	0	0	1	-30	30	-436.394788054	-112.510435818	436.585419545	105.920369127	;
	22	29	0.000157753	0.000181614	0.886083495	1416	1416	1416	0	0	1	-30	30	278.156045191	248.444740911	-277.901422806	-337.764485825	;
	22	36	0.000114952	0.001231098	0.103698609	2172	2172	2172	0	0	1	-30	30	-60.3176300238	73.6691967082	60.3288335941	-84.0373525127	;
	22	38	0.000222736	0.002385427	0.200930653	2172	2172	2172	0	0	1	-30	30	-283.666047256	150.339572788	283.899782527	-168.113080268	;
	22	46	0.000425686	0.004558955	0.384012537	2172	2172	2172	0	0	1	-30	30	-307.422926049	95.952132694	307.876335124	-129.822689914	;
	23	24	5.52e-05	0.000503	0.0147	2712	2712	2712	0	0	1	-30	30	147.734616834	53.1138925107	-147.721088794	-54.4732155999	;
	23	32	2.02e-05	4.64e-05	1.00675716	1906	1906	1906	0	0	1	-30	30	387.402268779	179.683872456	-387.361585823	-281.145533038	;
	23	33	0.000169968	0.000195677	0.238673524	708	708	708	0	0	1	-30	30	186.628856807	22.3658018635	-186.568185558	-46.3670299991	;
	24	26	0.000118	0.000136	0.664	1416	1416	1416	0	0	1	-30	30	-520.106711119	214.270975792	520.495147574	-280.787232193	;
	25	26	0.00041452	0.003775492	0.012253963	904	904	904	0	0	1	-30	30	-73.51825752	-7.16963462803	73.5406683824	6.13829286196	;
	25	34	0.000619848	0.00564564	0.018323828	904	904	904	0	0	1	-30	30	-77.3718017602	-7.50483760782	77.4088927601	5.99467296473	;
	26	32	0.000607908	0.005536893	0.01797087	904	904	904	0	0	1	-30	30	7.7043474311	0.242690478473	-7.70398177511	-2.05201003522	;
	26	34	4.5e-05	0.000103577	2.245327702	1906	1906	1906	0	0	1	-30	30	-1389.39686424	197.361338037	1390.30104082	-421.850651728	;
	27	34	9.33e-05	0.000999417	0.336734	4344	4344	4344	0	0	1	-30	30	173.970074955	-1.52892999866	-173.941895795	-32.1691000382	;
	28	38	0.001685665	0.015353221	0.049831335	904	904	904	0	0	1	-30	30	377.384909926	-25.685776009	-374.994739396	42.4372657112	;
	28	41	0.002015591	0.018358223	0.059584548	904	904	904	0	0	1	-30	30	25.319490491	56.0656775407	-25.2369182493	-61.2536661621	;
	28	50	9.99e-05	0.00321	1.63	7290	7290	7290	0	0	1	-30	30	1097.89967992	-44.8017118694	-1096.70391004	-80.8383036787	;
	28	80	0.000122152	0.003924627	7.991861101	14580	14580	14580	0	0	1	-30	30	-6402.12549814	777.815134031	6453.47404171	71.1109557646	;
	29	30	8.04e-06	9.26e-06	0.04515506	1416	1416	1416	0	0	1	-30	30	575.302971654	50.130162928	-575.276415799	-54.6616593194	;
	29	36	3.7e-05	8.52e-05	1.846241882	1906	1906	1906	0	0	1	-30	30	-893.632386911	213.662052952	893.95932855	-399.459996011	;
	30	31	0.00033011	0.003006676	0.009758648	904	904	904	0	0	1	-30	30	154.289885272	30.6983069949	-154.208920732	-30.9453529633	;
	31	33	0.000235829	0.000271499	0.331156608	708	708	708	0	0	1	-30	30	-193.21378884	11.3544935533	193.303021411	-44.6247826364	;
	31	36	0.00107165	0.0097607	0.031679912	904	904	904	0	0	1	-30	30	-56.9765613995	-11.1236273136	57.0120611343	8.25062344381	;
	32	33	6.05e-05	6.97e-05	0.1912274	1062	1062	1062	0	0	1	-30	30	283.503806408	30.1859158857	-283.454640504	-49.4116981115	;
	32	37	0.000239942	0.002569698	0.216452349	2172	2172	2172	0	0	1	-30	30	-119.588759854	38.1908540495	119.628521102	-59.574337637	;
	32	44	0.000338016	0.003620039	0.304925228	2172	2172	2172	0	0	1	-30	30	-283.838557457	84.2508187975	284.141835024	-111.677133773	;
	34	37	6.47e-05	0.000692975	0.058371101	2172	2172	2172	0	0	1	-30	30	-152.541386323	211.336237494	152.585733506	-216.745033802	;
	35	37	0.000950447	0.008656772	0.028096937	904	904	904	0	0	1	-30	30	-31.291555688	-20.8721379395	31.3044287556	18.1667029876	;
	35	40	0.001104834	0.01006295	0.032660912	904	904	904	0	0	1	-30	30	-221.194687753	21.4382556763	221.739697292	-19.7501724774	;
	36	38	0.000952048	0.00867136	0.028144286	904	904	904	0	0	1	-30	30	-68.7793363277	32.5102173638	68.8347535706	-34.8430886197	;
	36	43	0.001604892	0.014617531	0.047443535	904	904	904	0	0	1	-30	30	34.6665991567	31.7125076171	-34.6290342504	-36.1383795593	;
	36	44	0.000327256	0.003504805	0.295218756	2172	2172	2172	0	0	1	-30	30	-158.463424681	102.287352816	158.589233152	-130.666726161	;
	36	46	0.000315296	0.00337672	0.284429868	2172	2172	2172	0	0	1	-30	30	-392.819235822	112.208425705	393.350694348	-135.17486143	;
	37	40	0.000119	0.00127	0.429	4344	4344	4344	0	0	1	-30	30	-1550.48529175	266.519860515	1553.42540034	-278.256644539	;
	38	42	0.001675214	0.015258027	0.049522368	904	904	904	0	0	1	-30	30	180.458300142	92.2665956205	-179.766479073	-90.8630754046	;
	38	45	0.001624604	0.014797065	0.048026242	904	904	904	0	0	1	-30	30	-30.7756330781	8.55658222754	30.7928732155	-13.2255323552	;
	38	46	0.001525585	0.013895192	0.045099066	904	904	904	0	0	1	-30	30	-51.8207712508	8.46259464051	51.8632422578	-12.6095760529	;
	38	84	0.000977268	0.010466224	0.881597169	2172	2172	2172	0	0	1	-30	30	-456.894633992	100.932125111	459.127619257	-164.868431864	;
	39	44	0.000549539	0.00500526	0.064981493	1808	1808	1808	0	0	1	-30	30	-377.928464381	-15.3200997645	378.716024713	15.9918138033	;
	40	44	0.000186834	0.002000932	0.16854368	2172	2172	2172	0	0	1	-30	30	624.434919417	-62.536671716	-623.703429905	53.4593604566	;
	40	47	0.000177428	0.001900194	0.160058219	2172	2172	2172	0	0	1	-30	30	1020.42732084	9.11553909469	-1018.58552587	-5.41937096839	;
	41	42	0.001299581	0.011836722	0.038417974	904	904	904	0	0	1	-30	30	668.070772705	9.52535683626	-662.184212586	40.3296811302	;
	41	52	0.003101751	0.028251087	0.091693421	904	904	904	0	0	1	-30	30	54.2845064716	-13.6298184954	-54.1891588237	5.45138293988	;
	41	77	0.002217352	0.020195883	0.065548969	904	904	904	0	0	1	-30	30	-147.77110686	9.34477442065	148.265911608	-11.3065865191	;
	42	46	0.00172419	0.015704108	0.050970195	904	904	904	0	0	1	-30	30	-219.47013011	-77.9082164679	220.425491781	81.5723386717	;
	42	84	0.004178797	0.038060939	0.123532864	904	904	904	0	0	1	-30	30	-193.583993145	2.94118562912	195.198563662	-0.335568735718	;
	43	44	0.000449352	0.004092749	0.013283673	904	904	904	0	0	1	-30	30	-256.317330371	-18.8403709868	256.614189946	20.2139448925	;
	44	48	0.001280818	0.011665829	0.037863315	904	904	904	0	0	1	-30	30	-135.05840064	6.26041419954	135.292096049	-7.93441929112	;
	44	57	0.000681396	0.007297531	0.614689901	2172	2172	2172	0	0	1	-30	30	-763.26164962	111.17297794	767.354854481	-128.794313729	;
	45	46	0.000111099	0.001189836	0.100222927	2172	2172	2172	0	0	1	-30	30	-222.281599288	-20.8319609651	222.336563601	11.3563378032	;
	45	50	0.00040114	0.004296079	0.361869864	2172	2172	2172	0	0	1	-30	30	-423.958394404	12.6389310851	424.680503655	-41.2477967638	;
	46	48	0.001260894	0.011484355	0.037274311	904	904	904	0	0	1	-30	30	-70.5080540728	3.74653948002	70.5708455091	-6.92033991074	;
	46	50	0.000334595	0.003583402	0.301839233	2172	2172	2172	0	0	1	-30	30	-434.768499557	25.8921424221	435.403663493	-49.416554939	;
	47	49	0.001906713	0.017366547	0.056365905	904	904	904	0	0	1	-30	30	-95.4778752945	11.4903832363	95.6556853081	-15.5016475175	;
	47	60	0.000752607	0.008060181	0.67892992	2172	2172	2172	0	0	1	-30	30	-1170.03471908	95.8161093536	1180.46977734	-52.1146536385	;
	48	49	0.001480551	0.013485018	0.043767781	904	904	904	0	0	1	-30	30	44.5730217158	18.0394630912	-44.5377249821	-22.1026942073	;
	48	51	0.001270961	0.011576049	0.037571917	904	904	904	0	0	1	-30	30	36.9714936534	18.0542713249	-36.9491818953	-21.6173175998	;
	49	51	0.000899122	0.008189302	0.0598043	1356	1356	1356	0	0	1	-30	30	-21.0933250232	-7.98527511211	21.0975567989	2.04908528351	;
	49	53	0.002230934	0.020319589	0.065950477	904	904	904	0	0	1	-30	30	-474.394739028	47.384578943	479.480657785	-7.67958220984	;
	50	51	0.000183433	0.001964511	0.165475847	2172	2172	2172	0	0	1	-30	30	595.780478561	71.7696150813	-595.120803932	-81.2894242472	;
	50	54	0.000298513	0.003196975	0.269289514	2172	2172	2172	0	0	1	-30	30	-498.10483763	99.0527513337	498.879559538	-117.761754131	;
	50	62	4.12e-05	0.001322961	2.693994224	14580	14580	14580	0	0	1	-30	30	-1827.25660053	-22.2231584211	1828.63083464	-204.23095564	;
	51	55	0.001436718	0.01308578	0.042471992	904	904	904	0	0	1	-30	30	-368.344488698	54.8744748903	370.341171244	-40.930096329	;
	51	57	0.00189377	0.017248658	0.055983277	904	904	904	0	0	1	-30	30	-255.08094345	40.8300518447	256.34964214	-34.8615284535	;
	52	54	0.001933006	0.017606027	0.057143176	904	904	904	0	0	1	-30	30	-7.01557190734	-39.4851316924	7.04284321323	34.0519437672	;
	52	56	0.001462649	0.013321963	0.04323856	904	904	904	0	0	1	-30	30	51.0490209425	-16.9426250307	-51.0071808965	13.0478060808	;
	52	84	0.001585688	0.014442614	0.046875812	904	904	904	0	0	1	-30	30	-72.5372432704	8.25794208078	72.6235139591	-12.1004091914	;
	53	55	0.000288514	0.003089893	1.041078801	4344	4344	4344	0	0	1	-30	30	1517.22091239	16.5863033848	-1510.62205499	-50.348833786	;
	53	58	0.000270064	0.002892303	0.243626177	2172	2172	2172	0	0	1	-30	30	-359.251599586	25.5370888655	359.601026318	-46.3639479392	;
	53	63	2.79e-05	0.000896312	1.825192122	14580	14580	14580	0	0	1	-30	30	1326.85645719	-121.913222062	-1326.3691791	-46.5055085718	;
	54	55	0.002132132	0.019419691	0.063029714	904	904	904	0	0	1	-30	30	-107.574054155	17.9716016096	107.830077866	-21.938290846	;
	54	61	0.001817125	0.016550571	0.053717525	904	904	904	0	0	1	-30	30	-40.701802074	2.40544024222	40.7323497169	-7.5032757648	;
	54	62	0.000345552	0.003700749	0.311723639	2172	2172	2172	0	0	1	-30	30	-215.932827039	-35.8196640863	216.095216831	6.31131109508	;
	55	57	0.000154208	0.001651521	0.139111914	2172	2172	2172	0	0	1	-30	30	253.842311428	13.7262399119	-253.742059281	-26.5220255186	;
	55	64	0.003142511	0.028622331	0.092898352	904	904	904	0	0	1	-30	30	-32.6815148299	-8.48580474479	32.7156232003	-0.492420621167	;
	56	61	0.001408725	0.01283082	0.041644479	904	904	904	0	0	1	-30	30	-115.123814665	-29.6609057777	115.323212216	27.3315734663	;
	57	60	0.001430752	0.01303144	0.042295623	904	904	904	0	0	1	-30	30	-243.926797801	-5.90608677939	244.781488626	9.45786296425	;
	57	97	0.000552148	0.005913329	0.498094995	2172	2172	2172	0	0	1	-30	30	-1354.94306044	29.704510433	1365.13414503	29.4405411887	;
	58	59	6.17e-05	0.00066	0.501	6516	6516	6516	0	0	1	-30	30	-3144.13913668	76.7671195086	3150.19407895	-62.5933173491	;
	58	63	0.00017	0.00182	0.613	4344	4344	4344	0	0	1	-30	30	1220.73098018	-133.300943821	-1218.2011117	98.5678200462	;
	60	63	0.000254942	0.002730347	0.229984176	2172	2172	2172	0	0	1	-30	30	-268.962175791	-44.1828956558	269.148334161	23.0200201388	;
	60	100	0.000568608	0.006089613	0.512943851	2172	2172	2172	0	0	1	-30	30	-1342.66232546	68.2026515904	1352.9090579	-10.299139297	;
	61	62	0.000190755	0.001737417	0.022556263	1808	1808	1808	0	0	1	-30	30	-71.5178866515	-85.6642834003	71.5412583863	83.6162736681	;
	62	63	6.31e-05	0.00202596	4.125535352	14580	14580	14580	0	0	1	-30	30	-2392.67970974	-186.875414194	2396.27822207	-112.701694272	;
	62	64	0.00024797	0.002655684	0.223695124	2172	2172	2172	0	0	1	-30	30	-845.310060513	112.544648618	847.112818989	-115.674375781	;
	63	97	0.001705746	0.015536123	0.050424972	904	904	904	0	0	1	-30	30	-265.463098882	23.0697252204	266.666136356	-17.2046996476	;
	64	96	0.001229987	0.011202852	0.036360649	904	904	904	0	0	1	-30	30	-225.367469711	24.1378653797	225.999165994	-22.028599715	;
	64	98	0.00145865	0.013285543	0.043120356	904	904	904	0	0	1	-30	30	-43.1007489274	23.2071778876	43.1371571242	-27.1848146188	;
	64	99	0.00122871	0.011191219	0.036322892	904	904	904	0	0	1	-30	30	-40.9111356126	34.1038403964	40.9474821598	-37.3999002235	;
	64	102	0.00020466	0.002191839	0.73849704	4344	4344	4344	0	0	1	-30	30	-1675.47259026	63.6982443877	1681.22665138	-76.2175023683	;
	65	68	0.001222283	0.011132689	0.036132921	904	904	904	0	0	1	-30	30	-269.531222006	11.917911461	270.440837223	-7.17745678257	;
	65	69	0.003164497	0.028822584	0.093548306	904	904	904	0	0	1	-30	30	200.860650867	-24.5256199884	-199.543285407	27.3580407309	;
	66	67	0.001903714	0.01733923	0.056277244	904	904	904	0	0	1	-30	30	-245.242034971	58.3805814185	246.464380753	-52.8189177851	;
	66	70	0.001986687	0.018094956	0.058730073	904	904	904	0	0	1	-30	30	28.1860928702	0.65570724535	-28.1699744749	-6.34546163737	;
	67	69	0.001285688	0.011710181	0.038007266	904	904	904	0	0	1	-30	30	-271.528656807	49.9333519664	272.525968376	-44.5859462943	;
	68	69	0.00309092	0.02815243	0.091373212	904	904	904	0	0	1	-30	30	313.587748981	-20.7473681206	-310.487906819	40.0074550598	;
	68	71	0.000542799	0.0058132	0.489660838	2172	2172	2172	0	0	1	-30	30	-622.661435829	23.3689836936	624.814340963	-48.5179685238	;
	69	72	0.003845431	0.035024597	0.113677932	904	904	904	0	0	1	-30	30	190.099384151	-27.5201185847	-188.663923136	29.4121618488	;
	70	72	0.001924592	0.017529395	0.056894456	904	904	904	0	0	1	-30	30	-74.0578992363	23.6188072489	74.1777988988	-28.1563839489	;
	71	73	0.000429713	0.004602092	0.387646086	2172	2172	2172	0	0	1	-30	30	-861.670279032	65.2997822164	864.937895726	-68.5421838612	;
	71	78	0.005029715	0.045811184	0.148687523	904	904	904	0	0	1	-30	30	334.195365289	-34.0423925761	-328.460366676	71.5080799033	;
	72	74	0.001850173	0.016851572	0.054694473	904	904	904	0	0	1	-30	30	11.5366120379	-11.5507264791	-11.5326453608	6.18492218273	;
	73	75	0.000154736	0.001657168	0.139587554	2172	2172	2172	0	0	1	-30	30	-2150.5636694	105.289038817	2157.83382651	-41.2355752077	;
	73	76	0.003400257	0.030969904	0.100517777	904	904	904	0	0	1	-30	30	315.428522095	-0.309902087289	-312.000245682	21.686659761	;
	73	79	0.005323371	0.048485836	0.157368535	904	904	904	0	0	1	-30	30	295.094496451	-6.69250644066	-290.397908431	34.0269607504	;
	73	80	0.003287737	0.029945065	0.097191498	904	904	904	0	0	1	-30	30	74.0186892633	-26.934568197	-73.8198711094	19.1088458305	;
	73	81	0.001180594	0.012643784	1.065018618	2172	2172	2172	0	0	1	-30	30	1419.47548497	-32.1417641075	-1395.37010512	185.488085673	;
	74	77	0.001050785	0.009570661	0.03106311	904	904	904	0	0	1	-30	30	123.923914261	-9.61457678241	-123.760045221	8.03658401907	;
	74	78	0.003080612	0.028058549	0.091068507	904	904	904	0	0	1	-30	30	-149.678574698	-6.07806996006	150.376542578	3.37489303821	;
	75	82	0.000690812	0.007398375	0.623184303	2172	2172	2172	0	0	1	-30	30	-172.23789583	-107.785117205	172.485844775	48.2311120005	;
	76	79	0.00216439	0.019713499	0.063983315	904	904	904	0	0	1	-30	30	226.955040793	-30.4704264408	-225.791997319	34.8314000227	;
	77	81	0.002745828	0.0250093	0.081171682	904	904	904	0	0	1	-30	30	-261.188388349	47.2236832663	263.157228258	-37.2838634465	;
	78	81	0.002422622	0.022065501	0.071617111	904	904	904	0	0	1	-30	30	-55.2872528522	47.4597634638	55.4243086564	-53.3091624954	;
	79	80	0.003522928	0.032087205	0.104144155	904	904	904	0	0	1	-30	30	-373.86224413	27.6064576419	378.948257338	8.45127487779	;
	79	81	0.001905365	0.017354266	0.056326045	904	904	904	0	0	1	-30	30	203.988825633	-37.7521757645	-203.152186192	39.8613063107	;
	79	83	0.001772751	0.016146406	0.052405742	904	904	904	0	0	1	-30	30	229.904698467	0.810953202908	-228.944015642	2.84698533822	;
	80	82	3.61e-05	0.00115912	2.360357594	14580	14580	14580	0	0	1	-30	30	-6169.6371671	-102.905372041	6183.43404058	309.725637683	;
	81	84	0.00122041	0.011115623	0.144310127	1808	1808	1808	0	0	1	-30	30	905.29327208	-84.9637540053	-895.02508463	164.28521072	;
	81	86	0.000662535	0.007095536	0.59767536	2172	2172	2172	0	0	1	-30	30	-795.903653932	15.7131879059	800.194324346	-28.632650471	;
	82	85	0.004627741	0.042149964	0.136804449	904	904	904	0	0	1	-30	30	381.579273249	11.6980978237	-374.860326596	35.916919256	;
	82	86	0.000927929	0.009937818	0.837088105	2172	2172	2172	0	0	1	-30	30	1742.67255624	29.9335083605	-1714.59094922	187.355629346	;
	82	94	0.005001876	0.045557628	0.147864567	904	904	904	0	0	1	-30	30	307.614252055	-11.0014699683	-302.905139397	39.0860546091	;
	83	89	0.003668123	0.033409661	0.108436396	904	904	904	0	0	1	-30	30	-35.7111307851	-29.3130216625	35.781420956	19.3566593183	;
	85	86	0.000987046	0.00899012	0.029178874	904	904	904	0	0	1	-30	30	125.596111073	-60.843188465	-125.401751766	59.7406507789	;
	86	87	0.000301405	0.003227955	0.271898989	2172	2172	2172	0	0	1	-30	30	369.777664439	-102.393053997	-369.336716485	80.1823025728	;
	86	89	0.003643968	0.033189659	0.107722346	904	904	904	0	0	1	-30	30	140.740937617	-14.3107102851	-140.007932813	10.3472714179	;
	86	90	0.002477336	0.022563841	0.073234554	904	904	904	0	0	1	-30	30	113.420893219	-21.7737626571	-113.090309829	17.5319361173	;
	86	92	0.000752885	0.008063158	0.67918067	2172	2172	2172	0	0	1	-30	30	171.762441644	-104.394675883	-171.499600032	39.7496164781	;
	87	90	0.002118269	0.019293421	0.062619884	904	904	904	0	0	1	-30	30	71.1915748193	-9.36570042439	-71.0825566878	4.14557985764	;
	87	95	0.000515412	0.005519901	0.464955523	2172	2172	2172	0	0	1	-30	30	88.389186491	-71.5352123549	-88.3364116845	25.8546871647	;
	88	92	0.001978682	0.018022046	0.058493431	904	904	904	0	0	1	-30	30	98.1611908779	-12.4521430878	-97.9683321294	8.37194701661	;
	88	94	0.002833759	0.025810183	0.083771075	904	904	904	0	0	1	-30	30	-113.863161746	10.8819505501	114.237763051	-15.8278808816	;
	89	93	0.001483845	0.013515018	0.043865152	904	904	904	0	0	1	-30	30	210.815205315	-43.9565923476	-210.120565485	45.9424325718	;
	90	92	0.002453205	0.022344057	0.072521209	904	904	904	0	0	1	-30	30	-53.3633309025	-10.3936135026	53.4348963525	3.83040733297	;
	91	147	0.00275034	0.025050396	0.081305066	904	904	904	0	0	1	-30	30	-75.114861733	0.984289236556	75.2706815566	-7.70681848613	;
	92	95	0.000460572	0.004932573	0.415483409	2172	2172	2172	0	0	1	-30	30	60.9411024624	-16.9490973882	-60.9238938009	-24.303792027	;
	93	102	0.004195747	0.038215319	0.124033929	904	904	904	0	0	1	-30	30	67.6380061297	-29.9799837399	-67.4206269149	19.5660657681	;
	93	149	0.002966654	0.027020609	0.087699707	904	904	904	0	0	1	-30	30	-46.6410880468	18.6889394496	46.7219747113	-26.6155262871	;
	94	150	0.00258422	0.023537359	0.076394262	904	904	904	0	0	1	-30	30	146.034598642	-13.3733561579	-145.479726093	10.8140213599	;
	95	146	0.001216475	0.011079788	0.035961223	904	904	904	0	0	1	-30	30	183.941551888	9.1440871251	-183.527208622	-8.94339829828	;
	95	150	0.000858914	0.009198692	0.774829649	2172	2172	2172	0	0	1	-30	30	-171.654227578	-14.5648924983	171.913090387	-59.8553661918	;
...